Version 4.1
SHEET 1 880 680
WIRE 464 -16 256 -16
WIRE 368 32 304 32
WIRE 368 48 368 32
WIRE 464 80 464 -16
WIRE 544 96 544 80
WIRE 592 96 544 96
WIRE 64 128 0 128
WIRE 160 128 128 128
WIRE 256 128 256 -16
WIRE 256 128 240 128
WIRE 288 128 256 128
WIRE 368 128 368 112
WIRE 0 160 0 128
WIRE 368 160 368 128
WIRE 288 176 288 128
WIRE 336 176 288 176
WIRE 544 192 544 96
WIRE 544 192 400 192
WIRE 336 208 256 208
WIRE 368 272 368 224
WIRE 368 368 368 352
FLAG 368 368 0
FLAG 256 288 0
FLAG 0 240 0
FLAG 304 32 0
FLAG 592 96 Vout
SYMBOL OpAmps\\OP747 368 128 R0
SYMATTR InstName U1
SYMBOL res 240 192 R0
SYMATTR InstName R1
SYMATTR Value 1k
SYMBOL res 560 64 R90
WINDOW 0 0 56 VBottom 2
WINDOW 3 32 56 VTop 2
SYMATTR InstName R2
SYMATTR Value 10k
SYMBOL res 256 112 R90
WINDOW 0 0 56 VBottom 2
WINDOW 3 32 56 VTop 2
SYMATTR InstName R3
SYMATTR Value 1k
SYMBOL voltage 368 256 R0
WINDOW 123 0 0 Left 0
WINDOW 39 0 0 Left 0
SYMATTR InstName V1
SYMATTR Value -10
SYMBOL voltage 368 144 R180
WINDOW 123 0 0 Left 0
WINDOW 39 0 0 Left 0
SYMATTR InstName V2
SYMATTR Value 10
SYMBOL voltage 0 144 R0
WINDOW 123 24 124 Left 2
WINDOW 39 0 0 Left 0
SYMATTR Value2 AC 1
SYMATTR InstName V3
SYMATTR Value ""
SYMBOL cap 128 112 R90
WINDOW 0 0 32 VBottom 2
WINDOW 3 32 32 VTop 2
SYMATTR InstName C1
SYMATTR Value 0.01µF
TEXT -272 -64 Left 2 ;DIFFERENTIATOR
TEXT 656 -24 Left 2 !.ac dec 50 50 100k
