Version 4.1
SHEET 1 880 680
WIRE 16 -208 -48 -208
WIRE 160 -208 80 -208
WIRE -48 -160 -48 -208
WIRE 160 -160 160 -208
WIRE 160 -160 -48 -160
WIRE 64 -112 0 -112
WIRE 64 -96 64 -112
WIRE 160 -64 160 -160
WIRE 240 -48 240 -64
WIRE 288 -48 240 -48
WIRE -144 -16 -304 -16
WIRE -48 -16 -48 -160
WIRE -48 -16 -64 -16
WIRE -16 -16 -48 -16
WIRE 64 -16 64 -32
WIRE -304 16 -304 -16
WIRE 64 16 64 -16
WIRE -16 32 -16 -16
WIRE 32 32 -16 32
WIRE 240 48 240 -48
WIRE 240 48 96 48
WIRE 32 64 -48 64
WIRE 64 128 64 80
WIRE 64 224 64 208
FLAG 64 224 0
FLAG -48 144 0
FLAG -304 96 0
FLAG 0 -112 0
FLAG 288 -48 Vout
SYMBOL OpAmps\\OP747 64 -16 R0
SYMATTR InstName U1
SYMBOL res -64 48 R0
SYMATTR InstName R1
SYMATTR Value 1k
SYMBOL res 256 -80 R90
WINDOW 0 0 56 VBottom 2
WINDOW 3 32 56 VTop 2
SYMATTR InstName R2
SYMATTR Value 10k
SYMBOL res -48 -32 R90
WINDOW 0 0 56 VBottom 2
WINDOW 3 32 56 VTop 2
SYMATTR InstName R3
SYMATTR Value 1k
SYMBOL voltage 64 112 R0
WINDOW 123 0 0 Left 0
WINDOW 39 0 0 Left 0
SYMATTR InstName V1
SYMATTR Value -10
SYMBOL voltage 64 0 R180
WINDOW 123 0 0 Left 0
WINDOW 39 0 0 Left 0
SYMATTR InstName V2
SYMATTR Value 10
SYMBOL voltage -304 0 R0
WINDOW 123 24 124 Left 2
WINDOW 39 0 0 Left 0
SYMATTR InstName V3
SYMATTR Value ""
SYMATTR Value2 AC 1
SYMBOL cap 80 -224 R90
WINDOW 0 0 32 VBottom 2
WINDOW 3 32 32 VTop 2
SYMATTR InstName C1
SYMATTR Value 0.01µF
TEXT -544 -296 Left 2 ;INTEGRATOR
TEXT 400 -264 Left 2 !.ac dec 50 5 100k
