Version 4.1
SHEET 1 880 680
WIRE 288 -208 80 -208
WIRE 192 -160 128 -160
WIRE 192 -144 192 -160
WIRE 288 -112 288 -208
WIRE 368 -96 368 -112
WIRE 416 -96 368 -96
WIRE -16 -64 -176 -64
WIRE 80 -64 80 -208
WIRE 80 -64 64 -64
WIRE 112 -64 80 -64
WIRE 192 -64 192 -80
WIRE -176 -32 -176 -64
WIRE 192 -32 192 -64
WIRE 112 -16 112 -64
WIRE 160 -16 112 -16
WIRE 368 0 368 -96
WIRE 368 0 224 0
WIRE 160 16 80 16
WIRE 192 80 192 32
WIRE 192 176 192 160
FLAG 192 176 0
FLAG 80 96 0
FLAG -176 48 0
FLAG 128 -160 0
FLAG 416 -96 Vout
SYMBOL OpAmps\\OP747 192 -64 R0
SYMATTR InstName U1
SYMBOL res 64 0 R0
SYMATTR InstName R1
SYMATTR Value 1k
SYMBOL res 384 -128 R90
WINDOW 0 0 56 VBottom 2
WINDOW 3 32 56 VTop 2
SYMATTR InstName R2
SYMATTR Value 10k
SYMBOL res 80 -80 R90
WINDOW 0 0 56 VBottom 2
WINDOW 3 32 56 VTop 2
SYMATTR InstName R3
SYMATTR Value 1k
SYMBOL voltage 192 64 R0
WINDOW 123 0 0 Left 0
WINDOW 39 0 0 Left 0
SYMATTR InstName V1
SYMATTR Value -10
SYMBOL voltage 192 -48 R180
WINDOW 123 0 0 Left 0
WINDOW 39 0 0 Left 0
SYMATTR InstName V2
SYMATTR Value 10
SYMBOL voltage -176 -48 R0
WINDOW 123 0 0 Left 0
WINDOW 39 0 0 Left 0
SYMATTR InstName V3
SYMATTR Value SINE(0 0.4 10000)
TEXT 576 -192 Left 2 !.tran 10m
TEXT -200 -256 Left 2 ;INVERTING
