Version 4.1
SHEET 1 880 680
WIRE 176 80 0 80
WIRE 80 128 32 128
WIRE 176 160 176 80
WIRE 80 240 80 208
WIRE 0 256 0 80
WIRE 0 256 -32 256
WIRE 48 256 0 256
WIRE 176 272 176 240
WIRE 176 272 112 272
WIRE 240 272 176 272
WIRE 48 288 -48 288
WIRE -48 336 -48 288
WIRE 80 336 80 304
WIRE -48 448 -48 416
FLAG 32 128 0
FLAG 80 416 0
FLAG -112 256 0
FLAG 240 272 Vout
FLAG -48 528 0
SYMBOL OpAmps\\OP747 80 208 R0
SYMATTR InstName U1
SYMBOL res -16 240 R90
WINDOW 0 0 56 VBottom 2
WINDOW 3 32 56 VTop 2
SYMATTR InstName R1
SYMATTR Value 1k
SYMBOL res 160 144 R0
SYMATTR InstName R2
SYMATTR Value 10k
SYMBOL res -64 320 R0
SYMATTR InstName R3
SYMATTR Value 1k
SYMBOL voltage -48 432 R0
WINDOW 123 0 0 Left 0
WINDOW 39 0 0 Left 0
SYMATTR InstName V1
SYMATTR Value SINE(0 0.8 1k)
SYMBOL voltage 80 224 R180
WINDOW 0 24 96 Left 2
WINDOW 3 24 16 Left 2
WINDOW 123 0 0 Left 0
WINDOW 39 0 0 Left 0
SYMATTR InstName V2
SYMATTR Value 10
SYMBOL voltage 80 320 R0
WINDOW 123 0 0 Left 0
WINDOW 39 0 0 Left 0
SYMATTR InstName V3
SYMATTR Value -10
TEXT -512 120 Left 2 ;NON-INVERTING
TEXT 368 160 Left 2 !.tran 10m
